opendss/LVTestCase/data/PV/PV_394.txt
New generator.m_gen3 Phases=1 Bus1=70.1 kV=0.23 kW=1 PF=0.95 Yearly=PV_Shape_7
New generator.m_gen4 Phases=1 Bus1=73.1 kV=0.23 kW=1 PF=0.95 Yearly=PV_Shape_6
New generator.m_gen47 Phases=1 Bus1=835.3 kV=0.23 kW=1 PF=0.95 Yearly=PV_Shape_83
New generator.m_gen43 Phases=1 Bus1=780.3 kV=0.23 kW=1 PF=0.95 Yearly=PV_Shape_137
New generator.m_gen32 Phases=1 Bus1=614.3 kV=0.23 kW=1 PF=0.95 Yearly=PV_Shape_89
New generator.m_gen29 Phases=1 Bus1=562.1 kV=0.23 kW=1 PF=0.95 Yearly=PV_Shape_5
New generator.m_gen48 Phases=1 Bus1=860.1 kV=0.23 kW=1 PF=0.95 Yearly=PV_Shape_147
New generator.m_gen8 Phases=1 Bus1=208.3 kV=0.23 kW=1 PF=0.95 Yearly=PV_Shape_50
New generator.m_gen25 Phases=1 Bus1=502.1 kV=0.23 kW=1 PF=0.95 Yearly=PV_Shape_98
New generator.m_gen7 Phases=1 Bus1=178.2 kV=0.23 kW=1 PF=0.95 Yearly=NM_Shape_24
New generator.m_gen12 Phases=1 Bus1=264.3 kV=0.23 kW=1 PF=0.95 Yearly=NM_Shape_151
